
**** 03/28/22 14:13:23 ***** PSpice 16.6.0 (October 2012) ***** ID# 0 ********

 ** Profile: "SCHEMATIC1-s1"  [ C:\Users\destr\OneDrive\Desktop\Thesis\code\5 bit error simulation\full_thesis-pspicefiles\schematic1


 ****     CIRCUIT DESCRIPTION


******************************************************************************




** Creating circuit file "s1.cir" 
** WARNING: THIS AUTOMATICALLY GENERATED FILE MAY BE OVERWRITTEN BY SUBSEQUENT SIMULATIONS

*Libraries: 
* Profile Libraries :
* Local Libraries :
.LIB "C:/Cadence/SPB_16.6/tools/capture/library/memristor.lib" 
* From [PSPICE NETLIST] section of C:\Users\destr\AppData\Roaming\SPB_Data\cdssetup\OrCAD_PSpice/16.6.0/PSpice.ini file:
.lib "nom.lib" 

*Analysis directives: 
.TRAN  0 160ms 0 
.OPTIONS ADVCONV
.OPTIONS DIGINITSTATE= 0
.PROBE64 V(alias(*)) I(alias(*)) W(alias(*)) D(alias(*)) NOISE(alias(*)) 
.INC "..\SCHEMATIC1.net" 



**** INCLUDING SCHEMATIC1.net ****
* source FULL_THESIS
X_U11         N92219 N92299 N92361 N92005 N95848 $G_DPWR $G_DGND AND4
X_U17         N92219 N91949 N92361 N92469 N95896 $G_DPWR $G_DGND AND4
X_U22B         0 0 N92239 N92219 N92219 N92299 N91949 $G_CD4000_VDD
+  $G_CD4000_VSS CD4027A PARAMS:
+ IO_LEVEL=0 MNTYMXDLY=0
X_U8         N91941 N91949 N92361 N92005 N95825 $G_DPWR $G_DGND AND4
X_U16         N91941 N91949 N92361 N92469 N95889 $G_DPWR $G_DGND AND4
X_U23B         0 0 N92239 N92227 N92227 N92469 N92005 $G_CD4000_VDD
+  $G_CD4000_VSS CD4027A PARAMS:
+ IO_LEVEL=0 MNTYMXDLY=0
X_U18         N91941 N92299 N92361 N92469 N95905 $G_DPWR $G_DGND AND4
X_U1A         0 0 N92239 N92213 N92213 N92219 N91941 $G_CD4000_VDD
+  $G_CD4000_VSS CD4027A PARAMS:
+ IO_LEVEL=0 MNTYMXDLY=0
X_U12         N91941 N91949 N91957 N92469 N95857 $G_DPWR $G_DGND AND4
X_U5         N91941 N92299 N91957 N92005 N95802 $G_DPWR $G_DGND AND4
X_U13         N92219 N91949 N91957 N92469 N95864 $G_DPWR $G_DGND AND4
X_U21         N91941 N91949 N91957 N92005 N95789 $G_DPWR $G_DGND AND4
X_U6         N92219 N91949 N91957 N92005 N95793 $G_DPWR $G_DGND AND4
V_V1         N92213 0 5Vdc
X_U4         N92223 N92361 N92227  $G_DPWR $G_DGND AND2
X_U24         N98874 N98886 N98895 N98904 N98913 N98922 N98931 N98940 N102727
+  $G_DPWR $G_DGND OR8
X_U25         N99145 N98958 N98967 N98976 N98985 N98994 N99003 N99012 N102743
+  $G_DPWR $G_DGND OR8
X_U2A         0 0 N92239 N92223 N92223 N92361 N91957 $G_CD4000_VDD
+  $G_CD4000_VSS CD4027A PARAMS:
+ IO_LEVEL=0 MNTYMXDLY=0
X_U19         N92219 N92299 N92361 N92469 N95912 $G_DPWR $G_DGND AND4
U_DSTM1         STIM(1,1) $G_DPWR $G_DGND N92239 IO_STM IO_LEVEL=0 
+ 0 1
+ +5ms 0
+REPEAT FOREVER
+ +5ms 1
+  +5ms 0
+ ENDREPEAT
X_U10         N91941 N92299 N92361 N92005 N95841 $G_DPWR $G_DGND AND4
X_U9         N92219 N91949 N92361 N92005 N95832 $G_DPWR $G_DGND AND4
X_U15         N92219 N92299 N91957 N92469 N95880 $G_DPWR $G_DGND AND4
X_U3         N92219 N92299 N92223  $G_DPWR $G_DGND AND2
X_U14         N91941 N92299 N91957 N92469 N95873 $G_DPWR $G_DGND AND4
X_U7         N92219 N92299 N91957 N92005 N95816 $G_DPWR $G_DGND AND4
X_U27         N95848 N95841 N95832 N95825 N95816 N95802 N95793 N95789 N95923
+  $G_DPWR $G_DGND OR8
X_U28         N95912 N95905 N95896 N95889 N95880 N95873 N95864 N95857 N96117
+  $G_DPWR $G_DGND OR8
X_U30         N96117 N95923 N96853 $G_DPWR $G_DGND OR2
X_U31         N96853 N95789 N98874  $G_DPWR $G_DGND AND2
X_U32         N96860 N95793 N98886  $G_DPWR $G_DGND AND2
X_U33         N96853 N95802 N98895  $G_DPWR $G_DGND AND2
X_U34         N96860 N95816 N98904  $G_DPWR $G_DGND AND2
X_U35         N96853 N95825 N98913  $G_DPWR $G_DGND AND2
X_U36         N96860 N95832 N98922  $G_DPWR $G_DGND AND2
X_U37         N96853 N95841 N98931  $G_DPWR $G_DGND AND2
X_U38         N96860 N95848 N98940  $G_DPWR $G_DGND AND2
X_U39         N96853 N95857 N99145  $G_DPWR $G_DGND AND2
X_U40         N96860 N95864 N98958  $G_DPWR $G_DGND AND2
X_U41         N96853 N95873 N98967  $G_DPWR $G_DGND AND2
X_U42         N96860 N95880 N98976  $G_DPWR $G_DGND AND2
X_U43         N96853 N95889 N98985  $G_DPWR $G_DGND AND2
X_U44         N96860 N95896 N98994  $G_DPWR $G_DGND AND2
X_U45         N96853 N95905 N99003  $G_DPWR $G_DGND AND2
X_U46         N96860 N95912 N99012  $G_DPWR $G_DGND AND2
R_R5         N1001241 0  1G  
R_R1         N1000261 N999620  0.5k  
R_R4         N999940 N100142  0.5k  
C_C3         N999940 0 100n TC=0
X_M1         N100142 N1001241 N100216 MEMRISTOR
R_R6         N100222 N100216  1G  
C_C1         N999620 0 100n TC=0
V_V2         N100222 0 600mVdc
R_R2         N999780 N999620  0.5k  
R_R3         N999780 N999940  0.5k  
C_C4         N100142 0 100n TC=0
C_C2         N999780 0 100n TC=0
X_U47         N96117 N95923 N96860 $G_DPWR $G_DGND NOR2
X_InputCorrect         N102743 N102727 N1000261 $G_DPWR $G_DGND OR2
X_U70         N96853 N96853 N1113922 $G_DPWR $G_DGND XOR
X_U71         N1113922 N96860 N1115702 $G_DPWR $G_DGND XOR
X_U72         N1115702 N96860 N209980 $G_DPWR $G_DGND XOR
X_U73         N96860 N96860 N1117982 $G_DPWR $G_DGND XOR
X_U74         N1117982 N96860 N1118692 $G_DPWR $G_DGND XOR
X_U75         N1118692 N96853 N1118972 $G_DPWR $G_DGND XOR
X_U76         N1118972 N96853 N209965 $G_DPWR $G_DGND XOR
X_U77         N1123330 N96860 N209953 $G_DPWR $G_DGND XOR
X_U78         N1123590 N96860 N1123330 $G_DPWR $G_DGND XOR
X_U79         N1123870 N96853 N1123590 $G_DPWR $G_DGND XOR
X_U80         N96853 N96853 N1123870 $G_DPWR $G_DGND XOR
X_U81         N96860 N96860 N1135112 $G_DPWR $G_DGND XOR
X_U82         N1135112 N96853 N1135372 $G_DPWR $G_DGND XOR
X_U83         N1135372 N96860 N1135652 $G_DPWR $G_DGND XOR
X_U84         N1135652 N96853 N209938 $G_DPWR $G_DGND XOR
X_U85         N96853 N96860 N1152682 $G_DPWR $G_DGND XOR
X_U86         N1152682 N96853 N1152942 $G_DPWR $G_DGND XOR
X_U87         N1152942 N96860 N1153222 $G_DPWR $G_DGND XOR
X_U88         N1153222 N96853 N1153502 $G_DPWR $G_DGND XOR
X_U89         N1153502 N96860 N209926 $G_DPWR $G_DGND XOR
X_U90         N96853 N96853 N1163452 $G_DPWR $G_DGND XOR
X_U91         N1163452 N96860 N1163712 $G_DPWR $G_DGND XOR
X_U92         N1163712 N96853 N1163972 $G_DPWR $G_DGND XOR
X_U93         N1163972 N96860 N1164232 $G_DPWR $G_DGND XOR
X_U94         N1164232 N96853 N209911 $G_DPWR $G_DGND XOR
X_U98         N1174032 N96860 N209896 $G_DPWR $G_DGND XOR
X_U95         N96860 N96860 N1173512 $G_DPWR $G_DGND XOR
X_U96         N1173512 N96853 N1173772 $G_DPWR $G_DGND XOR
X_U97         N1173772 N96860 N1174032 $G_DPWR $G_DGND XOR
X_U104         N96860 N96853 N1206722 $G_DPWR $G_DGND XOR
X_U100         N1205122 N96853 N1205382 $G_DPWR $G_DGND XOR
X_U107         N1207242 N96860 N1207502 $G_DPWR $G_DGND XOR
X_U103         N1205902 N96853 N209881 $G_DPWR $G_DGND XOR
X_U102         N1205642 N96853 N1205902 $G_DPWR $G_DGND XOR
X_U108         N1207502 N96860 N209862 $G_DPWR $G_DGND XOR
X_U99         N96853 N96860 N1205122 $G_DPWR $G_DGND XOR
X_U101         N1205382 N96860 N1205642 $G_DPWR $G_DGND XOR
X_U106         N1206982 N96853 N1207242 $G_DPWR $G_DGND XOR
X_U105         N1206722 N96860 N1206982 $G_DPWR $G_DGND XOR
X_U109         N96853 N96860 N1209682 $G_DPWR $G_DGND XOR
X_U112         N1210202 N96853 N209847 $G_DPWR $G_DGND XOR
X_U111         N1209942 N96860 N1210202 $G_DPWR $G_DGND XOR
X_U110         N1209682 N96853 N1209942 $G_DPWR $G_DGND XOR
X_U176         N1848212 N181213 N1848472 $G_DPWR $G_DGND XOR
X_U152         N181213 N181227 N1833052 $G_DPWR $G_DGND XOR
X_U153         N1833052 N181213 N1833432 $G_DPWR $G_DGND XOR
C_C8         N184123 0 100n TC=0
X_U156         N1834252 N181213 N1835072 $G_DPWR $G_DGND XOR
X_U160         N1837970 N181213 N1837670 $G_DPWR $G_DGND XOR
X_U155         N181227 N181213 N1834252 $G_DPWR $G_DGND XOR
X_U116         N1812852 N181227 N1813872 $G_DPWR $G_DGND XOR
X_U163         N181227 N181213 N1842332 $G_DPWR $G_DGND XOR
V_V3         N184201 0 600mVdc
R_R8         N1839590 N1839430  0.5k  
X_U138         N181213 N95802 N183453  $G_DPWR $G_DGND AND2
C_C7         N1839750 0 100n TC=0
X_U127         N1819112 N181213 N1819372 $G_DPWR $G_DGND XOR
X_U162         N181213 N181227 N1838230 $G_DPWR $G_DGND XOR
X_U121         N1817252 N181213 N1817512 $G_DPWR $G_DGND XOR
X_U165         N1842592 N181213 N1842852 $G_DPWR $G_DGND XOR
R_R12         N184201 N184201  1G  
R_R10         N1839750 N184123  0.5k  
C_C6         N1839590 0 100n TC=0
X_U124         N181227 N181227 N1818592 $G_DPWR $G_DGND XOR
X_U120         N1816992 N181227 N1817252 $G_DPWR $G_DGND XOR
X_U118         N1814132 N181213 N211325 $G_DPWR $G_DGND XOR
X_U128         N1819372 N181213 N211449 $G_DPWR $G_DGND XOR
X_U168         N181213 N181213 N1844752 $G_DPWR $G_DGND XOR
X_U133         N95848 N95841 N95832 N95825 N95816 N95802 N95793 N95789 N182403
+  $G_DPWR $G_DGND OR8
X_U113         N181227 N181213 N1812852 $G_DPWR $G_DGND XOR
X_U167         N182431 N182403 N181213 $G_DPWR $G_DGND NOR2
X_U132         N1820632 N181227 N211457 $G_DPWR $G_DGND XOR
X_U125         N1818592 N181213 N1818852 $G_DPWR $G_DGND XOR
X_U117         N1813872 N181213 N1814132 $G_DPWR $G_DGND XOR
X_U154         N1833432 N181213 N210791 $G_DPWR $G_DGND XOR
X_M2         N184123 N1841051 N184201 MEMRISTOR
X_U164         N1842332 N181227 N1842592 $G_DPWR $G_DGND XOR
X_U150         N181227 N95905 N183635  $G_DPWR $G_DGND AND2
X_U146         N181227 N95873 N183575  $G_DPWR $G_DGND AND2
X_U171         N1845272 N181227 N1845532 $G_DPWR $G_DGND XOR
X_U144         N181227 N95857 N183689  $G_DPWR $G_DGND AND2
X_U151         N181213 N95912 N183651  $G_DPWR $G_DGND AND2
X_InputCorrect1         N184689 N184679 N1840071 $G_DPWR $G_DGND OR2
X_U130         N1820112 N181227 N1820372 $G_DPWR $G_DGND XOR
X_U157         N1835072 N181227 N1835572 $G_DPWR $G_DGND XOR
R_R11         N1841051 0  1G  
R_R9         N1839590 N1839750  0.5k  
X_U158         N1835572 N181227 N210805 $G_DPWR $G_DGND XOR
X_U175         N1847952 N181227 N1848212 $G_DPWR $G_DGND XOR
X_U119         N181213 N181213 N1816992 $G_DPWR $G_DGND XOR
X_U170         N1845012 N181213 N1845272 $G_DPWR $G_DGND XOR
X_U147         N181213 N95880 N183585  $G_DPWR $G_DGND AND2
X_U137         N181227 N95793 N183443  $G_DPWR $G_DGND AND2
X_U143         N181213 N95848 N183529  $G_DPWR $G_DGND AND2
X_U123         N1817772 N181227 N211445 $G_DPWR $G_DGND XOR
X_U141         N181213 N95832 N183483  $G_DPWR $G_DGND AND2
X_U122         N1817512 N181227 N1817772 $G_DPWR $G_DGND XOR
X_U166         N1842852 N181227 N211138 $G_DPWR $G_DGND XOR
X_U145         N181213 N95864 N183539  $G_DPWR $G_DGND AND2
X_U149         N181213 N95896 N183625  $G_DPWR $G_DGND AND2
X_U142         N181227 N95841 N183519  $G_DPWR $G_DGND AND2
X_U129         N181213 N181213 N1820112 $G_DPWR $G_DGND XOR
X_U126         N1818852 N181227 N1819112 $G_DPWR $G_DGND XOR
X_U173         N181213 N181227 N1847692 $G_DPWR $G_DGND XOR
X_U140         N181213 N95825 N183473  $G_DPWR $G_DGND AND2
X_U135         N182431 N182403 N181227 $G_DPWR $G_DGND OR2
X_U159         N1837670 N181213 N210847 $G_DPWR $G_DGND XOR
R_R7         N1840071 N1839430  0.5k  
X_U139         N181227 N95816 N183463  $G_DPWR $G_DGND AND2
X_U169         N1844752 N181227 N1845012 $G_DPWR $G_DGND XOR
X_U136         N181213 N95789 N183437  $G_DPWR $G_DGND AND2
C_C5         N1839430 0 100n TC=0
X_U148         N181227 N95889 N183595  $G_DPWR $G_DGND AND2
X_U177         N1848472 N181227 N211287 $G_DPWR $G_DGND XOR
X_U161         N1838230 N181227 N1837970 $G_DPWR $G_DGND XOR
X_U174         N1847692 N181213 N1847952 $G_DPWR $G_DGND XOR
X_U131         N1820372 N181213 N1820632 $G_DPWR $G_DGND XOR
X_U172         N1845532 N181213 N211205 $G_DPWR $G_DGND XOR
X_U134         N95912 N95905 N95896 N95889 N95880 N95873 N95864 N95857 N182431
+  $G_DPWR $G_DGND OR8
X_U178         N211457 N209847 N213153 $G_DPWR $G_DGND XOR
X_U179         N211449 N209862 N213149 $G_DPWR $G_DGND XOR
X_U180         N211445 N209881 N213145 $G_DPWR $G_DGND XOR
X_U181         N211325 N209896 N213141 $G_DPWR $G_DGND XOR
X_U182         N211287 N209911 N213133 $G_DPWR $G_DGND XOR
X_U183         N211205 N209926 N213129 $G_DPWR $G_DGND XOR
X_U184         N211138 N209938 N213125 $G_DPWR $G_DGND XOR
X_U185         N210847 N209953 N213121 $G_DPWR $G_DGND XOR
X_U186         N210805 N209965 N213117 $G_DPWR $G_DGND XOR
X_U187         N210791 N209980 N213113 $G_DPWR $G_DGND XOR
X_U188         N213113 N181227 N215958 $G_DPWR $G_DGND XOR
X_U189         N213117 N181227 N215951 $G_DPWR $G_DGND XOR
X_U190         N213121 N181227 N215944 $G_DPWR $G_DGND XOR
X_U191         N213125 N181227 N215935 $G_DPWR $G_DGND XOR
X_U192         N213129 N181227 N215928 $G_DPWR $G_DGND XOR
X_U193         N213133 N181227 N215921 $G_DPWR $G_DGND XOR
X_U194         N213141 N181227 N215914 $G_DPWR $G_DGND XOR
X_U195         N213145 N181227 N215907 $G_DPWR $G_DGND XOR
X_U196         N213149 N181227 N215900 $G_DPWR $G_DGND XOR
X_U197         N213153 N181227 N2156032 $G_DPWR $G_DGND XOR
X_U199         N2156032 N215900 N215907 N215914 N215921 N215928 N215935 N215944
+  N215951 N215958 N307198 $G_DPWR $G_DGND NOR10
X_U318         N213149 N181227 N295922 $G_DPWR $G_DGND XOR
X_U311         N213117 N181213 N295988 $G_DPWR $G_DGND XOR
X_U313         N213125 N181227 N295968 $G_DPWR $G_DGND XOR
X_U312         N213121 N181227 N295978 $G_DPWR $G_DGND XOR
X_U320         N295922 N295922 N295928 N295938 N295948 N295958 N295968 N295978
+  N295988 N295998 N307202 $G_DPWR $G_DGND NOR10
X_U317         N213145 N181213 N295928 $G_DPWR $G_DGND XOR
X_U315         N213133 N181213 N295948 $G_DPWR $G_DGND XOR
X_U316         N213141 N181227 N295938 $G_DPWR $G_DGND XOR
X_U310         N213113 N181213 N295998 $G_DPWR $G_DGND XOR
X_U314         N213129 N181213 N295958 $G_DPWR $G_DGND XOR
X_U319         N213153 N181227 N295922 $G_DPWR $G_DGND XOR
X_U323         N213121 N181213 N297468 $G_DPWR $G_DGND XOR
X_U331         N2973962 N297408 N297418 N297428 N297438 N297448 N297458 N297468
+  N297478 N297488 N307224 $G_DPWR $G_DGND NOR10
X_U324         N213125 N181227 N297458 $G_DPWR $G_DGND XOR
X_U321         N213113 N181213 N297488 $G_DPWR $G_DGND XOR
X_U330         N213153 N181227 N2973962 $G_DPWR $G_DGND XOR
X_U322         N213117 N181227 N297478 $G_DPWR $G_DGND XOR
X_U328         N213145 N181213 N297418 $G_DPWR $G_DGND XOR
X_U327         N213141 N181213 N297428 $G_DPWR $G_DGND XOR
X_U329         N213149 N181213 N297408 $G_DPWR $G_DGND XOR
X_U326         N213133 N181227 N297438 $G_DPWR $G_DGND XOR
X_U325         N213129 N181213 N297448 $G_DPWR $G_DGND XOR
X_U339         N213145 N181227 N300913 $G_DPWR $G_DGND XOR
X_U336         N213129 N181213 N300943 $G_DPWR $G_DGND XOR
X_U332         N213113 N181213 N300983 $G_DPWR $G_DGND XOR
X_U342         N3008912 N300903 N300913 N300923 N300933 N300943 N300953 N300963
+  N300973 N300983 N307233 $G_DPWR $G_DGND NOR10
X_U334         N213121 N181227 N300963 $G_DPWR $G_DGND XOR
X_U341         N213153 N181213 N3008912 $G_DPWR $G_DGND XOR
X_U338         N213141 N181227 N300923 $G_DPWR $G_DGND XOR
X_U333         N213117 N181227 N300973 $G_DPWR $G_DGND XOR
X_U337         N213133 N181227 N300933 $G_DPWR $G_DGND XOR
X_U340         N213149 N181213 N300903 $G_DPWR $G_DGND XOR
X_U335         N213125 N181213 N300953 $G_DPWR $G_DGND XOR
X_U360         N213141 N181227 N304673 $G_DPWR $G_DGND XOR
X_U344         N213117 N181227 N304203 $G_DPWR $G_DGND XOR
X_U346         N213125 N181227 N304187 $G_DPWR $G_DGND XOR
X_U383         N213145 N181227 N305703 $G_DPWR $G_DGND XOR
X_U350         N213145 N181213 N304163 $G_DPWR $G_DGND XOR
X_U349         N213141 N181227 N304153 $G_DPWR $G_DGND XOR
X_U381         N213133 N181227 N305723 $G_DPWR $G_DGND XOR
X_U364         N3046512 N304663 N304683 N304673 N304707 N304697 N304693 N304721
+  N304717 N304737 N315488 $G_DPWR $G_DGND NOR10
X_U356         N213121 N181227 N304721 $G_DPWR $G_DGND XOR
X_U371         N213141 N181227 N305207 $G_DPWR $G_DGND XOR
X_U385         N213153 N181213 N3056912 $G_DPWR $G_DGND XOR
X_U362         N213149 N181227 N304663 $G_DPWR $G_DGND XOR
X_U372         N213145 N181213 N305187 $G_DPWR $G_DGND XOR
X_U343         N213113 N181213 N304217 $G_DPWR $G_DGND XOR
X_U357         N213125 N181213 N304693 $G_DPWR $G_DGND XOR
X_U379         N213125 N181213 N305757 $G_DPWR $G_DGND XOR
X_U354         N213113 N181227 N304737 $G_DPWR $G_DGND XOR
X_U369         N213129 N181227 N305217 $G_DPWR $G_DGND XOR
X_U355         N213117 N181227 N304717 $G_DPWR $G_DGND XOR
X_U382         N213141 N181213 N305727 $G_DPWR $G_DGND XOR
X_U373         N213149 N181213 N305183 $G_DPWR $G_DGND XOR
X_U366         N213117 N181213 N305257 $G_DPWR $G_DGND XOR
X_U347         N213129 N181213 N304173 $G_DPWR $G_DGND XOR
X_U377         N213117 N181227 N305767 $G_DPWR $G_DGND XOR
X_U386         N3056912 N305713 N305703 N305727 N305723 N305737 N305757 N305753
+  N305767 N305783 N315523 $G_DPWR $G_DGND NOR10
X_U378         N213121 N181213 N305753 $G_DPWR $G_DGND XOR
X_U370         N213133 N181213 N305203 $G_DPWR $G_DGND XOR
X_U361         N213145 N181213 N304683 $G_DPWR $G_DGND XOR
X_U365         N213113 N181227 N305253 $G_DPWR $G_DGND XOR
X_U374         N213153 N181227 N3051712 $G_DPWR $G_DGND XOR
X_U348         N213133 N181213 N304177 $G_DPWR $G_DGND XOR
X_U359         N213133 N181227 N304707 $G_DPWR $G_DGND XOR
X_U380         N213129 N181213 N305737 $G_DPWR $G_DGND XOR
X_U367         N213121 N181227 N305233 $G_DPWR $G_DGND XOR
X_U351         N213149 N181227 N304143 $G_DPWR $G_DGND XOR
X_U363         N213153 N181213 N3046512 $G_DPWR $G_DGND XOR
X_U375         N3051712 N305183 N305187 N305207 N305203 N305217 N305243 N305233
+  N305257 N305253 N315508 $G_DPWR $G_DGND NOR10
X_U384         N213149 N181213 N305713 $G_DPWR $G_DGND XOR
X_U368         N213125 N181213 N305243 $G_DPWR $G_DGND XOR
X_U352         N213153 N181213 N3041312 $G_DPWR $G_DGND XOR
X_U345         N213121 N181227 N304207 $G_DPWR $G_DGND XOR
X_U358         N213129 N181227 N304697 $G_DPWR $G_DGND XOR
X_U376         N213113 N181227 N305783 $G_DPWR $G_DGND XOR
X_U353         N3041312 N304143 N304163 N304153 N304177 N304173 N304187 N304207
+  N304203 N304217 N315538 $G_DPWR $G_DGND NOR10
X_U415         N213141 N181213 N313192 $G_DPWR $G_DGND XOR
X_U406         N213149 N181213 N312648 $G_DPWR $G_DGND XOR
X_U428         N213149 N181213 N313698 $G_DPWR $G_DGND XOR
X_U398         N213113 N181213 N312722 $G_DPWR $G_DGND XOR
X_U394         N213145 N181227 N312148 $G_DPWR $G_DGND XOR
X_U402         N213129 N181227 N312682 $G_DPWR $G_DGND XOR
X_U410         N213117 N181213 N313242 $G_DPWR $G_DGND XOR
X_U422         N213121 N181213 N313738 $G_DPWR $G_DGND XOR
X_U418         N213153 N181213 N3131562 $G_DPWR $G_DGND XOR
X_U397         N3121162 N312128 N312148 N312138 N312162 N312158 N312172 N312192
+  N312188 N312202 N315589 $G_DPWR $G_DGND NOR10
X_U405         N213145 N181227 N312668 $G_DPWR $G_DGND XOR
X_U389         N213121 N181213 N312192 $G_DPWR $G_DGND XOR
X_U391         N213129 N181213 N312158 $G_DPWR $G_DGND XOR
X_U411         N213121 N181213 N313218 $G_DPWR $G_DGND XOR
X_U401         N213125 N181213 N312678 $G_DPWR $G_DGND XOR
X_U427         N213145 N181227 N313688 $G_DPWR $G_DGND XOR
X_U420         N213113 N181227 N313768 $G_DPWR $G_DGND XOR
X_U403         N213133 N181213 N312692 $G_DPWR $G_DGND XOR
X_U413         N213129 N181213 N313202 $G_DPWR $G_DGND XOR
X_U387         N213113 N181213 N312202 $G_DPWR $G_DGND XOR
X_U424         N213129 N181227 N313722 $G_DPWR $G_DGND XOR
X_U390         N213125 N181213 N312172 $G_DPWR $G_DGND XOR
X_U392         N213133 N181213 N312162 $G_DPWR $G_DGND XOR
X_U414         N213133 N181227 N313188 $G_DPWR $G_DGND XOR
X_U409         N213113 N181227 N313238 $G_DPWR $G_DGND XOR
X_U421         N213117 N181213 N313752 $G_DPWR $G_DGND XOR
X_U423         N213125 N181213 N313742 $G_DPWR $G_DGND XOR
X_U388         N213117 N181213 N312188 $G_DPWR $G_DGND XOR
X_U416         N213145 N181213 N313172 $G_DPWR $G_DGND XOR
X_U426         N213141 N181213 N313712 $G_DPWR $G_DGND XOR
X_U417         N213149 N181227 N313168 $G_DPWR $G_DGND XOR
X_U430         N3136762 N313698 N313688 N313712 N313708 N313722 N313742 N313738
+  N313752 N313768 N315574 $G_DPWR $G_DGND NOR10
X_U419         N3131562 N313168 N313172 N313192 N313188 N313202 N313228 N313218
+  N313242 N313238 N315562 $G_DPWR $G_DGND NOR10
X_U399         N213117 N181213 N312702 $G_DPWR $G_DGND XOR
X_U408         N3126362 N312648 N312668 N312658 N312692 N312682 N312678 N312706
+  N312702 N312722 N315553 $G_DPWR $G_DGND NOR10
X_U404         N213141 N181213 N312658 $G_DPWR $G_DGND XOR
X_U425         N213133 N181227 N313708 $G_DPWR $G_DGND XOR
X_U395         N213149 N181227 N312128 $G_DPWR $G_DGND XOR
X_U393         N213141 N181213 N312138 $G_DPWR $G_DGND XOR
X_U407         N213153 N181227 N3126362 $G_DPWR $G_DGND XOR
X_U400         N213121 N181227 N312706 $G_DPWR $G_DGND XOR
X_U412         N213125 N181227 N313228 $G_DPWR $G_DGND XOR
X_U429         N213153 N181227 N3136762 $G_DPWR $G_DGND XOR
X_U396         N213153 N181213 N3121162 $G_DPWR $G_DGND XOR
X_U431         N183437 N183443 N183453 N183463 N183473 N183483 N183519 N183529
+  N184689 $G_DPWR $G_DGND OR8
X_U432         N183689 N183539 N183575 N183585 N183595 N183625 N183635 N183651
+  N184679 $G_DPWR $G_DGND OR8
X_U444A         N4603302 N4603841 $G_DPWR $G_DGND 74AC04 PARAMS:
+ IO_LEVEL=0 MNTYMXDLY=0
X_U437         N4601281 N460180 N460748  $G_DPWR $G_DGND AND2
X_U452A         N4605822 N4606421 $G_DPWR $G_DGND 74AC04 PARAMS:
+ IO_LEVEL=0 MNTYMXDLY=0
X_U441         N4602581 N460280 N460758  $G_DPWR $G_DGND AND2
X_U434         N183483 N95832 N460180 $G_DPWR $G_DGND OR2
X_U448A         N4604562 N4605061 $G_DPWR $G_DGND 74AC04 PARAMS:
+ IO_LEVEL=0 MNTYMXDLY=0
X_U440A         N4602042 N4602581 $G_DPWR $G_DGND 74AC04 PARAMS:
+ IO_LEVEL=0 MNTYMXDLY=0
X_U442         N181213 N183529 N4603302 $G_DPWR $G_DGND XOR
X_U436A         N4600782 N4601281 $G_DPWR $G_DGND 74AC04 PARAMS:
+ IO_LEVEL=0 MNTYMXDLY=0
X_U454         N183651 N183635 N183625 N183595 N183585 N183575 N183473 N183463
+  N183453 N183443 N183437 N460788 N460778 N460768 N460758 N460748 N4600521
+  $G_DPWR $G_DGND OR16
X_U439         N183519 N95841 N460280 $G_DPWR $G_DGND OR2
X_U443         N183529 N95848 N460432 $G_DPWR $G_DGND OR2
X_U451         N183539 N95864 N460684 $G_DPWR $G_DGND OR2
X_U449         N4605061 N460558 N460778  $G_DPWR $G_DGND AND2
X_U450         N181213 N183539 N4605822 $G_DPWR $G_DGND XOR
X_U447         N183689 N95857 N460558 $G_DPWR $G_DGND OR2
X_U433         N181213 N183483 N4600782 $G_DPWR $G_DGND XOR
X_U446         N181213 N183689 N4604562 $G_DPWR $G_DGND XOR
X_U438         N181213 N183519 N4602042 $G_DPWR $G_DGND XOR
X_U453         N4606421 N460684 N460788  $G_DPWR $G_DGND AND2
X_U455         N315508 N4600521 N610541  $G_DPWR $G_DGND AND2
X_U445         N4603841 N460432 N460768  $G_DPWR $G_DGND AND2
X_U474         N183575 N95873 N462593 $G_DPWR $G_DGND OR2
X_U476         N4625511 N462593 N462697  $G_DPWR $G_DGND AND2
X_U460         N4620371 N462089 N462657  $G_DPWR $G_DGND AND2
X_U467A         N4622392 N4622931 $G_DPWR $G_DGND 74AC04 PARAMS:
+ IO_LEVEL=0 MNTYMXDLY=0
X_U457         N181213 N183519 N4619872 $G_DPWR $G_DGND XOR
X_U468         N4622931 N462341 N462677  $G_DPWR $G_DGND AND2
X_U461         N181213 N183529 N4621132 $G_DPWR $G_DGND XOR
X_U456         N315523 N539914 N610532  $G_DPWR $G_DGND AND2
X_U463A         N4621132 N4621671 $G_DPWR $G_DGND 74AC04 PARAMS:
+ IO_LEVEL=0 MNTYMXDLY=0
X_U462         N183529 N95848 N462189 $G_DPWR $G_DGND OR2
X_U459A         N4619872 N4620371 $G_DPWR $G_DGND 74AC04 PARAMS:
+ IO_LEVEL=0 MNTYMXDLY=0
X_U464         N4621671 N462189 N462667  $G_DPWR $G_DGND AND2
X_U458         N183519 N95841 N462089 $G_DPWR $G_DGND OR2
X_U473         N181213 N183575 N4624912 $G_DPWR $G_DGND XOR
X_U477         N183651 N183635 N183625 N183595 N183585 N183483 N183473 N183463
+  N183453 N183443 N183437 N462697 N462687 N462677 N462667 N462657 N539914
+  $G_DPWR $G_DGND OR16
X_U475A         N4624912 N4625511 $G_DPWR $G_DGND 74AC04 PARAMS:
+ IO_LEVEL=0 MNTYMXDLY=0
X_U466         N183689 N95857 N462341 $G_DPWR $G_DGND OR2
X_U470         N183539 N95864 N462467 $G_DPWR $G_DGND OR2
X_U465         N181213 N183689 N4622392 $G_DPWR $G_DGND XOR
X_U472         N4624151 N462467 N462687  $G_DPWR $G_DGND AND2
X_U471A         N4623652 N4624151 $G_DPWR $G_DGND 74AC04 PARAMS:
+ IO_LEVEL=0 MNTYMXDLY=0
X_U469         N181213 N183539 N4623652 $G_DPWR $G_DGND XOR
X_U498         N4641941 N464236 N464340  $G_DPWR $G_DGND AND2
X_U494         N4640581 N464110 N464330  $G_DPWR $G_DGND AND2
X_U484         N183689 N95857 N463832 $G_DPWR $G_DGND OR2
X_U493A         N4640082 N4640581 $G_DPWR $G_DGND 74AC04 PARAMS:
+ IO_LEVEL=0 MNTYMXDLY=0
X_U478         N315538 N4636041 N610523  $G_DPWR $G_DGND AND2
X_U495         N181213 N183585 N4641342 $G_DPWR $G_DGND XOR
X_U482         N4636801 N463732 N464300  $G_DPWR $G_DGND AND2
X_U497A         N4641342 N4641941 $G_DPWR $G_DGND 74AC04 PARAMS:
+ IO_LEVEL=0 MNTYMXDLY=0
X_U485A         N4637562 N4638101 $G_DPWR $G_DGND 74AC04 PARAMS:
+ IO_LEVEL=0 MNTYMXDLY=0
X_U489A         N4638822 N4639361 $G_DPWR $G_DGND 74AC04 PARAMS:
+ IO_LEVEL=0 MNTYMXDLY=0
X_U483         N181213 N183689 N4637562 $G_DPWR $G_DGND XOR
X_U487         N181213 N183539 N4638822 $G_DPWR $G_DGND XOR
X_U479         N181213 N183529 N4636302 $G_DPWR $G_DGND XOR
X_U499         N183651 N183635 N183625 N183595 N183519 N183483 N183473 N183463
+  N183453 N183443 N183437 N464340 N464330 N464320 N464310 N464300 N4636041
+  $G_DPWR $G_DGND OR16
X_U490         N4639361 N463984 N464320  $G_DPWR $G_DGND AND2
X_U496         N183585 N95880 N464236 $G_DPWR $G_DGND OR2
X_U486         N4638101 N463832 N464310  $G_DPWR $G_DGND AND2
X_U488         N183539 N95864 N463984 $G_DPWR $G_DGND OR2
X_U492         N183575 N95873 N464110 $G_DPWR $G_DGND OR2
X_U481A         N4636302 N4636801 $G_DPWR $G_DGND 74AC04 PARAMS:
+ IO_LEVEL=0 MNTYMXDLY=0
X_U480         N183529 N95848 N463732 $G_DPWR $G_DGND OR2
X_U491         N181213 N183575 N4640082 $G_DPWR $G_DGND XOR
X_U516         N4657011 N465753 N465973  $G_DPWR $G_DGND AND2
X_U501         N181213 N183437 N4652732 $G_DPWR $G_DGND XOR
X_U504         N4653231 N465375 N465943  $G_DPWR $G_DGND AND2
X_U502         N183437 N95789 N465375 $G_DPWR $G_DGND OR2
X_U521         N183651 N183635 N183625 N183595 N183585 N183575 N183539 N183689
+  N183529 N183519 N183483 N465983 N465973 N465963 N465953 N465943 N470672
+  $G_DPWR $G_DGND OR16
X_U511A         N4655252 N4655791 $G_DPWR $G_DGND 74AC04 PARAMS:
+ IO_LEVEL=0 MNTYMXDLY=0
X_U520         N4658371 N465879 N465983  $G_DPWR $G_DGND AND2
X_U506         N183443 N95793 N465475 $G_DPWR $G_DGND OR2
X_U519A         N4657772 N4658371 $G_DPWR $G_DGND 74AC04 PARAMS:
+ IO_LEVEL=0 MNTYMXDLY=0
X_U518         N183473 N95825 N465879 $G_DPWR $G_DGND OR2
X_U512         N4655791 N465627 N465963  $G_DPWR $G_DGND AND2
X_U515A         N4656512 N4657011 $G_DPWR $G_DGND 74AC04 PARAMS:
+ IO_LEVEL=0 MNTYMXDLY=0
X_U505         N181213 N183443 N4653992 $G_DPWR $G_DGND XOR
X_U517         N181213 N183473 N4657772 $G_DPWR $G_DGND XOR
X_U513         N181213 N183463 N4656512 $G_DPWR $G_DGND XOR
X_U510         N183453 N95802 N465627 $G_DPWR $G_DGND OR2
X_U500         N307198 N470672 N610487  $G_DPWR $G_DGND AND2
X_U507A         N4653992 N4654531 $G_DPWR $G_DGND 74AC04 PARAMS:
+ IO_LEVEL=0 MNTYMXDLY=0
X_U509         N181213 N183453 N4655252 $G_DPWR $G_DGND XOR
X_U508         N4654531 N465475 N465953  $G_DPWR $G_DGND AND2
X_U503A         N4652732 N4653231 $G_DPWR $G_DGND 74AC04 PARAMS:
+ IO_LEVEL=0 MNTYMXDLY=0
X_U514         N183463 N95816 N465753 $G_DPWR $G_DGND OR2
X_U543         N183651 N183635 N183625 N183595 N183585 N183575 N183539 N183689
+  N183529 N183443 N183437 N477494 N477484 N477474 N477464 N477454 N476610
+  $G_DPWR $G_DGND OR16
X_U537A         N4771622 N4772121 $G_DPWR $G_DGND 74AC04 PARAMS:
+ IO_LEVEL=0 MNTYMXDLY=0
X_U526         N4768341 N476860 N477454  $G_DPWR $G_DGND AND2
X_U525A         N4767842 N4768341 $G_DPWR $G_DGND 74AC04 PARAMS:
+ IO_LEVEL=0 MNTYMXDLY=0
X_U541A         N4772882 N4773481 $G_DPWR $G_DGND 74AC04 PARAMS:
+ IO_LEVEL=0 MNTYMXDLY=0
X_U538         N4772121 N477264 N477484  $G_DPWR $G_DGND AND2
X_U533A         N4770362 N4770901 $G_DPWR $G_DGND 74AC04 PARAMS:
+ IO_LEVEL=0 MNTYMXDLY=0
X_U524         N183453 N95802 N476860 $G_DPWR $G_DGND OR2
X_U532         N183473 N95825 N477138 $G_DPWR $G_DGND OR2
X_U540         N183519 N95841 N477390 $G_DPWR $G_DGND OR2
X_U522         N307224 N476610 N610496  $G_DPWR $G_DGND AND2
X_U531         N181213 N183473 N4770362 $G_DPWR $G_DGND XOR
X_U527         N181213 N183463 N4769102 $G_DPWR $G_DGND XOR
X_U529A         N4769102 N4769641 $G_DPWR $G_DGND 74AC04 PARAMS:
+ IO_LEVEL=0 MNTYMXDLY=0
X_U530         N4769641 N476986 N477464  $G_DPWR $G_DGND AND2
X_U534         N4770901 N477138 N477474  $G_DPWR $G_DGND AND2
X_U535         N181213 N183483 N4771622 $G_DPWR $G_DGND XOR
X_U528         N183463 N95816 N476986 $G_DPWR $G_DGND OR2
X_U539         N181213 N183519 N4772882 $G_DPWR $G_DGND XOR
X_U536         N183483 N95832 N477264 $G_DPWR $G_DGND OR2
X_U542         N4773481 N477390 N477494  $G_DPWR $G_DGND AND2
X_U523         N181213 N183453 N4767842 $G_DPWR $G_DGND XOR
X_U552         N4789301 N478952 N479430  $G_DPWR $G_DGND AND2
X_U550         N183473 N95825 N478952 $G_DPWR $G_DGND OR2
X_U559A         N4791282 N4791781 $G_DPWR $G_DGND 74AC04 PARAMS:
+ IO_LEVEL=0 MNTYMXDLY=0
X_U544         N307233 N478576 N610505  $G_DPWR $G_DGND AND2
X_U565         N183651 N183635 N183625 N183595 N183585 N183575 N183539 N183689
+  N183453 N183443 N183437 N479460 N479450 N479440 N479430 N479420 N478576
+  $G_DPWR $G_DGND OR16
X_U556         N4790561 N479104 N479440  $G_DPWR $G_DGND AND2
X_U549         N181213 N183473 N4788762 $G_DPWR $G_DGND XOR
X_U551A         N4788762 N4789301 $G_DPWR $G_DGND 74AC04 PARAMS:
+ IO_LEVEL=0 MNTYMXDLY=0
X_U561         N181213 N183529 N4792542 $G_DPWR $G_DGND XOR
X_U548         N4788001 N478826 N479420  $G_DPWR $G_DGND AND2
X_U555A         N4790022 N4790561 $G_DPWR $G_DGND 74AC04 PARAMS:
+ IO_LEVEL=0 MNTYMXDLY=0
X_U563A         N4792542 N4793141 $G_DPWR $G_DGND 74AC04 PARAMS:
+ IO_LEVEL=0 MNTYMXDLY=0
X_U560         N4791781 N479230 N479450  $G_DPWR $G_DGND AND2
X_U546         N183463 N95816 N478826 $G_DPWR $G_DGND OR2
X_U562         N183529 N95848 N479356 $G_DPWR $G_DGND OR2
X_U554         N183483 N95832 N479104 $G_DPWR $G_DGND OR2
X_U564         N4793141 N479356 N479460  $G_DPWR $G_DGND AND2
X_U547A         N4787502 N4788001 $G_DPWR $G_DGND 74AC04 PARAMS:
+ IO_LEVEL=0 MNTYMXDLY=0
X_U545         N181213 N183463 N4787502 $G_DPWR $G_DGND XOR
X_U557         N181213 N183519 N4791282 $G_DPWR $G_DGND XOR
X_U558         N183519 N95841 N479230 $G_DPWR $G_DGND OR2
X_U553         N181213 N183483 N4790022 $G_DPWR $G_DGND XOR
X_U597         N181213 N183463 N4996682 $G_DPWR $G_DGND XOR
X_U606         N183483 N95832 N500022 $G_DPWR $G_DGND OR2
X_U599A         N4996682 N4997221 $G_DPWR $G_DGND 74AC04 PARAMS:
+ IO_LEVEL=0 MNTYMXDLY=0
X_U592         N4994661 N499492 N500086  $G_DPWR $G_DGND AND2
X_U600         N4997221 N499770 N500106  $G_DPWR $G_DGND AND2
X_U596         N4995961 N499618 N500096  $G_DPWR $G_DGND AND2
X_U595A         N4995422 N4995961 $G_DPWR $G_DGND 74AC04 PARAMS:
+ IO_LEVEL=0 MNTYMXDLY=0
X_U601         N181213 N183473 N4997942 $G_DPWR $G_DGND XOR
X_U589         N181213 N183443 N4994162 $G_DPWR $G_DGND XOR
X_U604         N4998441 N499896 N500116  $G_DPWR $G_DGND AND2
X_U594         N183453 N95802 N499618 $G_DPWR $G_DGND OR2
X_U598         N183463 N95816 N499770 $G_DPWR $G_DGND OR2
X_U603A         N4997942 N4998441 $G_DPWR $G_DGND 74AC04 PARAMS:
+ IO_LEVEL=0 MNTYMXDLY=0
X_U593         N181213 N183453 N4995422 $G_DPWR $G_DGND XOR
X_U609         N183651 N183635 N183625 N183595 N183585 N183575 N183539 N183689
+  N183529 N183519 N183437 N500126 N500116 N500106 N500096 N500086 N499242
+  $G_DPWR $G_DGND OR16
X_U590         N183443 N95793 N499492 $G_DPWR $G_DGND OR2
X_U608         N4999801 N500022 N500126  $G_DPWR $G_DGND AND2
X_U591A         N4994162 N4994661 $G_DPWR $G_DGND 74AC04 PARAMS:
+ IO_LEVEL=0 MNTYMXDLY=0
X_U607A         N4999202 N4999801 $G_DPWR $G_DGND 74AC04 PARAMS:
+ IO_LEVEL=0 MNTYMXDLY=0
X_U605         N181213 N183483 N4999202 $G_DPWR $G_DGND XOR
X_U602         N183473 N95825 N499896 $G_DPWR $G_DGND OR2
X_U588         N499242 N307202 N610478  $G_DPWR $G_DGND AND2
X_U717         N5282241 N528246 N527944  $G_DPWR $G_DGND AND2
X_U707         N5277561 N527782 N528022  $G_DPWR $G_DGND AND2
X_U701         N183519 N95841 N527682 $G_DPWR $G_DGND OR2
X_U714         N181213 N183473 N5281702 $G_DPWR $G_DGND XOR
X_U708         N181213 N183689 N5278322 $G_DPWR $G_DGND XOR
X_U716A         N5281702 N5282241 $G_DPWR $G_DGND 74AC04 PARAMS:
+ IO_LEVEL=0 MNTYMXDLY=0
X_U703         N5276381 N527682 N528012  $G_DPWR $G_DGND AND2
X_U706A         N5277062 N5277561 $G_DPWR $G_DGND 74AC04 PARAMS:
+ IO_LEVEL=0 MNTYMXDLY=0
X_U711         N5278961 N527908 N528032  $G_DPWR $G_DGND AND2
X_U702A         N5275802 N5276381 $G_DPWR $G_DGND 74AC04 PARAMS:
+ IO_LEVEL=0 MNTYMXDLY=0
X_U710A         N5278322 N5278961 $G_DPWR $G_DGND 74AC04 PARAMS:
+ IO_LEVEL=0 MNTYMXDLY=0
X_U705         N183529 N95848 N527782 $G_DPWR $G_DGND OR2
X_U713         N315488 N528080 N610514  $G_DPWR $G_DGND AND2
X_U704         N181213 N183529 N5277062 $G_DPWR $G_DGND XOR
X_U719         N183483 N95832 N527530 $G_DPWR $G_DGND OR2
X_U709         N183689 N95857 N527908 $G_DPWR $G_DGND OR2
X_U715         N183473 N95825 N528246 $G_DPWR $G_DGND OR2
X_U699         N5275121 N527530 N528002  $G_DPWR $G_DGND AND2
X_U700         N181213 N183519 N5275802 $G_DPWR $G_DGND XOR
X_U712         N183651 N183635 N183625 N183595 N183585 N183575 N183539 N183463
+  N183453 N183443 N183437 N528032 N528022 N528012 N528002 N527944 N528080
+  $G_DPWR $G_DGND OR16
X_U718         N181213 N183483 N5275120 $G_DPWR $G_DGND XOR
X_U698A         N5275120 N5275121 $G_DPWR $G_DGND 74AC04 PARAMS:
+ IO_LEVEL=0 MNTYMXDLY=0
X_U730         N183575 N95873 N558532 $G_DPWR $G_DGND OR2
X_U720         N315553 N558088 N610433  $G_DPWR $G_DGND AND2
X_U736         N5586061 N558658 N558878  $G_DPWR $G_DGND AND2
X_U734         N183539 N95864 N558658 $G_DPWR $G_DGND OR2
X_U732         N5584841 N558532 N558868  $G_DPWR $G_DGND AND2
X_U721         N181213 N183595 N5581782 $G_DPWR $G_DGND XOR
X_U741         N183437 N183443 N183453 N183463 N183473 N183483 N183519 N183529
+  N183625 N183635 N183651 N558888 N558878 N558868 N558858 N558848 N558088
+  $G_DPWR $G_DGND OR16
X_U724         N5582281 N558254 N558848  $G_DPWR $G_DGND AND2
X_U726         N183585 N95880 N558380 $G_DPWR $G_DGND OR2
X_U737         N181213 N183689 N5586822 $G_DPWR $G_DGND XOR
X_U738         N183689 N95857 N558784 $G_DPWR $G_DGND OR2
X_U735A         N5585562 N5586061 $G_DPWR $G_DGND 74AC04 PARAMS:
+ IO_LEVEL=0 MNTYMXDLY=0
X_U728         N5583581 N558380 N558858  $G_DPWR $G_DGND AND2
X_U731A         N5584302 N5584841 $G_DPWR $G_DGND 74AC04 PARAMS:
+ IO_LEVEL=0 MNTYMXDLY=0
X_U739A         N5586822 N5587421 $G_DPWR $G_DGND 74AC04 PARAMS:
+ IO_LEVEL=0 MNTYMXDLY=0
X_U733         N181213 N183539 N5585562 $G_DPWR $G_DGND XOR
X_U740         N5587421 N558784 N558888  $G_DPWR $G_DGND AND2
X_U727A         N5583042 N5583581 $G_DPWR $G_DGND 74AC04 PARAMS:
+ IO_LEVEL=0 MNTYMXDLY=0
X_U729         N181213 N183575 N5584302 $G_DPWR $G_DGND XOR
X_U722         N183595 N95889 N558254 $G_DPWR $G_DGND OR2
X_U725         N181213 N183585 N5583042 $G_DPWR $G_DGND XOR
X_U723A         N5581782 N5582281 $G_DPWR $G_DGND 74AC04 PARAMS:
+ IO_LEVEL=0 MNTYMXDLY=0
X_U757A         N5603442 N5603941 $G_DPWR $G_DGND 74AC04 PARAMS:
+ IO_LEVEL=0 MNTYMXDLY=0
X_U742         N315562 N559876 N610408  $G_DPWR $G_DGND AND2
X_U752         N183585 N95880 N560320 $G_DPWR $G_DGND OR2
X_U746         N5600161 N560042 N560636  $G_DPWR $G_DGND AND2
X_U756         N183575 N95873 N560446 $G_DPWR $G_DGND OR2
X_U754         N5602721 N560320 N560656  $G_DPWR $G_DGND AND2
X_U743         N181213 N183625 N5599662 $G_DPWR $G_DGND XOR
X_U759         N181213 N183539 N5604702 $G_DPWR $G_DGND XOR
X_U763         N183437 N183443 N183453 N183463 N183473 N183483 N183519 N183529
+  N183689 N183635 N183651 N560676 N560666 N560656 N560646 N560636 N559876
+  $G_DPWR $G_DGND OR16
X_U753A         N5602182 N5602721 $G_DPWR $G_DGND 74AC04 PARAMS:
+ IO_LEVEL=0 MNTYMXDLY=0
X_U747         N181213 N183595 N5600922 $G_DPWR $G_DGND XOR
X_U755         N181213 N183575 N5603442 $G_DPWR $G_DGND XOR
X_U758         N5603941 N560446 N560666  $G_DPWR $G_DGND AND2
X_U744         N183625 N95896 N560042 $G_DPWR $G_DGND OR2
X_U749A         N5600922 N5601461 $G_DPWR $G_DGND 74AC04 PARAMS:
+ IO_LEVEL=0 MNTYMXDLY=0
X_U745A         N5599662 N5600161 $G_DPWR $G_DGND 74AC04 PARAMS:
+ IO_LEVEL=0 MNTYMXDLY=0
X_U761A         N5604702 N5605301 $G_DPWR $G_DGND 74AC04 PARAMS:
+ IO_LEVEL=0 MNTYMXDLY=0
X_U751         N181213 N183585 N5602182 $G_DPWR $G_DGND XOR
X_U762         N5605301 N560572 N560676  $G_DPWR $G_DGND AND2
X_U760         N183539 N95864 N560572 $G_DPWR $G_DGND OR2
X_U748         N183595 N95889 N560168 $G_DPWR $G_DGND OR2
X_U750         N5601461 N560168 N560646  $G_DPWR $G_DGND AND2
X_U690         N183585 N95880 N562165 $G_DPWR $G_DGND OR2
X_U682         N183625 N95896 N561887 $G_DPWR $G_DGND OR2
X_U692         N5621131 N562165 N562385  $G_DPWR $G_DGND AND2
X_U683A         N5618112 N5618651 $G_DPWR $G_DGND 74AC04 PARAMS:
+ IO_LEVEL=0 MNTYMXDLY=0
X_U694         N183575 N95873 N562291 $G_DPWR $G_DGND OR2
X_U680         N5617351 N561761 N562355  $G_DPWR $G_DGND AND2
X_U684         N5618651 N561887 N562365  $G_DPWR $G_DGND AND2
X_U679A         N5616852 N5617351 $G_DPWR $G_DGND 74AC04 PARAMS:
+ IO_LEVEL=0 MNTYMXDLY=0
X_U691A         N5620632 N5621131 $G_DPWR $G_DGND 74AC04 PARAMS:
+ IO_LEVEL=0 MNTYMXDLY=0
X_U696         N5622491 N562291 N562395  $G_DPWR $G_DGND AND2
X_U687A         N5619372 N5619911 $G_DPWR $G_DGND 74AC04 PARAMS:
+ IO_LEVEL=0 MNTYMXDLY=0
X_U695A         N5621892 N5622491 $G_DPWR $G_DGND 74AC04 PARAMS:
+ IO_LEVEL=0 MNTYMXDLY=0
X_U689         N181213 N183585 N5620632 $G_DPWR $G_DGND XOR
X_U697         N183437 N183443 N183453 N183463 N183473 N183483 N183519 N183529
+  N183689 N183539 N183651 N562395 N562385 N562375 N562365 N562355 N561595
+  $G_DPWR $G_DGND OR16
X_U688         N5619911 N562039 N562375  $G_DPWR $G_DGND AND2
X_U677         N181213 N183635 N5616852 $G_DPWR $G_DGND XOR
X_U681         N181213 N183625 N5618112 $G_DPWR $G_DGND XOR
X_U685         N181213 N183595 N5619372 $G_DPWR $G_DGND XOR
X_U686         N183595 N95889 N562039 $G_DPWR $G_DGND OR2
X_U676         N315574 N561595 N610396  $G_DPWR $G_DGND AND2
X_U678         N183635 N95905 N561761 $G_DPWR $G_DGND OR2
X_U693         N181213 N183575 N5621892 $G_DPWR $G_DGND XOR
X_U774         N183625 N95896 N563756 $G_DPWR $G_DGND OR2
X_U776         N5637081 N563756 N564092  $G_DPWR $G_DGND AND2
X_U780         N5638301 N563882 N564102  $G_DPWR $G_DGND AND2
X_U782         N183585 N95880 N564008 $G_DPWR $G_DGND OR2
X_U784         N5639661 N564008 N564112  $G_DPWR $G_DGND AND2
X_U766         N183651 N95912 N563478 $G_DPWR $G_DGND OR2
X_U770         N183635 N95905 N563604 $G_DPWR $G_DGND OR2
X_U767A         N5634022 N5634521 $G_DPWR $G_DGND 74AC04 PARAMS:
+ IO_LEVEL=0 MNTYMXDLY=0
X_U764         N315589 N563312 N5633762  $G_DPWR $G_DGND AND2
X_U771A         N5635282 N5635821 $G_DPWR $G_DGND 74AC04 PARAMS:
+ IO_LEVEL=0 MNTYMXDLY=0
X_U785         N183575 N183539 N183689 N183529 N183519 N183483 N183473 N183463
+  N183453 N183443 N183437 N564112 N564102 N564092 N564082 N564072 N563312
+  $G_DPWR $G_DGND OR16
X_U781         N181213 N183585 N5639062 $G_DPWR $G_DGND XOR
X_U772         N5635821 N563604 N564082  $G_DPWR $G_DGND AND2
X_U779A         N5637802 N5638301 $G_DPWR $G_DGND 74AC04 PARAMS:
+ IO_LEVEL=0 MNTYMXDLY=0
X_U769         N181213 N183635 N5635282 $G_DPWR $G_DGND XOR
X_U778         N183595 N95889 N563882 $G_DPWR $G_DGND OR2
X_U775A         N5636542 N5637081 $G_DPWR $G_DGND 74AC04 PARAMS:
+ IO_LEVEL=0 MNTYMXDLY=0
X_U768         N5634521 N563478 N564072  $G_DPWR $G_DGND AND2
X_U783A         N5639062 N5639661 $G_DPWR $G_DGND 74AC04 PARAMS:
+ IO_LEVEL=0 MNTYMXDLY=0
X_U773         N181213 N183625 N5636542 $G_DPWR $G_DGND XOR
X_U765         N181213 N183651 N5634022 $G_DPWR $G_DGND XOR
X_U777         N181213 N183595 N5637802 $G_DPWR $G_DGND XOR
X_U786         N610541 N610532 N610523 N610514 N610505 N610496 N610487 N610478
+  N610433 N610408 N610396 N5633762 N6103842 $G_DPWR $G_DGND OR12
C_C10         N6114530 0 100n TC=0
R_R15         N6114530 N6114690  0.5k  
C_C9         N6114370 0 100n TC=0
C_C11         N6114690 0 100n TC=0
C_C12         N611617 0 100n TC=0
R_R16         N6114690 N611617  0.5k  
R_R13         N6103842 N6114370  0.5k  
V_V4         N611701 0 600mVdc
R_R18         N611701 N611695  1G  
X_M3         N611617 N6115991 N611695 MEMRISTOR
R_R14         N6114530 N6114370  0.5k  
R_R17         N6115991 0  1G  

**** RESUMING s1.cir ****
.END


**** Generated AtoD and DtoA Interfaces ****

*
* Analog/Digital interface for node 0
*
* Moving X_U2A.U1:IN2 from analog node 0 to new digital node 0$AtoD
X$0_AtoD1
+ 0
+ 0$AtoD
+ $G_CD4000_VDD
+ $G_CD4000_VSS
+ AtoD_4000A
+       PARAMS: CAPACITANCE=   0     
* Moving X_U2A.U1:IN1 from analog node 0 to new digital node 0$AtoD2
X$0_AtoD2
+ 0
+ 0$AtoD2
+ $G_CD4000_VDD
+ $G_CD4000_VSS
+ AtoD_4000A
+       PARAMS: CAPACITANCE=   0     
* Moving X_U1A.U1:IN2 from analog node 0 to new digital node 0$AtoD3
X$0_AtoD3
+ 0
+ 0$AtoD3
+ $G_CD4000_VDD
+ $G_CD4000_VSS
+ AtoD_4000A
+       PARAMS: CAPACITANCE=   0     
* Moving X_U1A.U1:IN1 from analog node 0 to new digital node 0$AtoD4
X$0_AtoD4
+ 0
+ 0$AtoD4
+ $G_CD4000_VDD
+ $G_CD4000_VSS
+ AtoD_4000A
+       PARAMS: CAPACITANCE=   0     
* Moving X_U23B.U1:IN2 from analog node 0 to new digital node 0$AtoD5
X$0_AtoD5
+ 0
+ 0$AtoD5
+ $G_CD4000_VDD
+ $G_CD4000_VSS
+ AtoD_4000A
+       PARAMS: CAPACITANCE=   0     
* Moving X_U23B.U1:IN1 from analog node 0 to new digital node 0$AtoD6
X$0_AtoD6
+ 0
+ 0$AtoD6
+ $G_CD4000_VDD
+ $G_CD4000_VSS
+ AtoD_4000A
+       PARAMS: CAPACITANCE=   0     
* Moving X_U22B.U1:IN2 from analog node 0 to new digital node 0$AtoD7
X$0_AtoD7
+ 0
+ 0$AtoD7
+ $G_CD4000_VDD
+ $G_CD4000_VSS
+ AtoD_4000A
+       PARAMS: CAPACITANCE=   0     
* Moving X_U22B.U1:IN1 from analog node 0 to new digital node 0$AtoD8
X$0_AtoD8
+ 0
+ 0$AtoD8
+ $G_CD4000_VDD
+ $G_CD4000_VSS
+ AtoD_4000A
+       PARAMS: CAPACITANCE=   0     
*
* Analog/Digital interface for node N92213
*
* Moving X_U1A.U4:K1 from analog node N92213 to new digital node N92213$AtoD
X$N92213_AtoD1
+ N92213
+ N92213$AtoD
+ $G_CD4000_VDD
+ $G_CD4000_VSS
+ AtoD_4000A
+       PARAMS: CAPACITANCE=   0     
* Moving X_U1A.U4:J1 from analog node N92213 to new digital node N92213$AtoD2
X$N92213_AtoD2
+ N92213
+ N92213$AtoD2
+ $G_CD4000_VDD
+ $G_CD4000_VSS
+ AtoD_4000A
+       PARAMS: CAPACITANCE=   0     
*
* Analog/Digital interface for node N1000261
*
* Moving X_InputCorrect.U1:OUT1 from analog node N1000261 to new digital node N1000261$DtoA
X$N1000261_DtoA1
+ N1000261$DtoA
+ N1000261
+ $G_DPWR
+ $G_DGND
+ DtoAdefault
+       PARAMS: DRVH=  50     DRVL=  50     CAPACITANCE=   0     
*
* Analog/Digital interface for node N1840071
*
* Moving X_InputCorrect1.U1:OUT1 from analog node N1840071 to new digital node N1840071$DtoA
X$N1840071_DtoA1
+ N1840071$DtoA
+ N1840071
+ $G_DPWR
+ $G_DGND
+ DtoAdefault
+       PARAMS: DRVH=  50     DRVL=  50     CAPACITANCE=   0     
*
* Analog/Digital interface for node N6103842
*
* Moving X_U786.U1:OUT1 from analog node N6103842 to new digital node N6103842$DtoA
X$N6103842_DtoA1
+ N6103842$DtoA
+ N6103842
+ $G_DPWR
+ $G_DGND
+ DtoAdefault
+       PARAMS: DRVH=  50     DRVL=  50     CAPACITANCE=   0     
*
* Analog/Digital interface power supply subcircuits
*
X$DIGIFPWR 0 DIGIFPWR
X$CD4000_PWR 0 CD4000_PWR


**** 03/28/22 14:13:23 ***** PSpice 16.6.0 (October 2012) ***** ID# 0 ********

 ** Profile: "SCHEMATIC1-s1"  [ C:\Users\destr\OneDrive\Desktop\Thesis\code\5 bit error simulation\full_thesis-pspicefiles\schematic1


 ****     Diode MODEL PARAMETERS


******************************************************************************




               D74CLMP         
          IS    1.000000E-15 
          RS    2            
         CJO    2.000000E-12 


**** 03/28/22 14:13:23 ***** PSpice 16.6.0 (October 2012) ***** ID# 0 ********

 ** Profile: "SCHEMATIC1-s1"  [ C:\Users\destr\OneDrive\Desktop\Thesis\code\5 bit error simulation\full_thesis-pspicefiles\schematic1


 ****     Digital Input MODEL PARAMETERS


******************************************************************************




               DIN74           
      S0NAME 0               
       S0TSW    3.500000E-09 
       S0RLO    7.13         
       S0RHI  389            
      S1NAME 1               
       S1TSW    5.500000E-09 
       S1RLO  467            
       S1RHI  200            
      S2NAME X               
       S2TSW    3.500000E-09 
       S2RLO   42.9          
       S2RHI  116            
      S3NAME R               
       S3TSW    3.500000E-09 
       S3RLO   42.9          
       S3RHI  116            
      S4NAME F               
       S4TSW    3.500000E-09 
       S4RLO   42.9          
       S4RHI  116            
      S5NAME Z               
       S5TSW    3.500000E-09 
       S5RLO  200.000000E+03 
       S5RHI  200.000000E+03 


**** 03/28/22 14:13:23 ***** PSpice 16.6.0 (October 2012) ***** ID# 0 ********

 ** Profile: "SCHEMATIC1-s1"  [ C:\Users\destr\OneDrive\Desktop\Thesis\code\5 bit error simulation\full_thesis-pspicefiles\schematic1


 ****     Digital Output MODEL PARAMETERS


******************************************************************************




               DO4000A         
    TIMESTEP  100.000000E-12 
      S0NAME X               
       S0VHI     .5          
       S0VLO    -.5          
      S1NAME 0               
       S1VHI    -.5          
       S1VLO   -3            
      S2NAME R               
       S2VHI     .05         
       S2VLO    -.5          
      S3NAME R               
       S3VHI     .5          
       S3VLO    -.05         
      S4NAME X               
       S4VHI     .5          
       S4VLO    -.5          
      S5NAME 1               
       S5VHI    3            
       S5VLO     .5          
      S6NAME F               
       S6VHI     .5          
       S6VLO    -.05         
      S7NAME F               
       S7VHI     .05         
       S7VLO    -.5          


**** 03/28/22 14:13:23 ***** PSpice 16.6.0 (October 2012) ***** ID# 0 ********

 ** Profile: "SCHEMATIC1-s1"  [ C:\Users\destr\OneDrive\Desktop\Thesis\code\5 bit error simulation\full_thesis-pspicefiles\schematic1


 ****     Digital Gate MODEL PARAMETERS


******************************************************************************




               D_PLD_GATE      D0_GATE         D_CD4027A_1     D_AC04          
      TPLHMN    0               0               0               1.000000E-09 
      TPLHTY    0               0               0               4.000000E-09 
      TPLHMX    0               0               0               7.500000E-09 
      TPHLMN    0               0              40.000000E-09    1.000000E-09 
      TPHLTY    0               0             100.000000E-09    3.500000E-09 
      TPHLMX    0               0             160.000000E-09    7.000000E-09 


**** 03/28/22 14:13:23 ***** PSpice 16.6.0 (October 2012) ***** ID# 0 ********

 ** Profile: "SCHEMATIC1-s1"  [ C:\Users\destr\OneDrive\Desktop\Thesis\code\5 bit error simulation\full_thesis-pspicefiles\schematic1


 ****     Digital Edge Triggered FF MODEL PARAMETERS


******************************************************************************




               D_CD4027A_2     D_CD4027A_3     
  TPCLKQLHMN   30.000000E-09   64.000000E-09 
  TPCLKQLHTY   75.000000E-09  160.000000E-09 
  TPCLKQLHMX  120.000000E-09  360.000000E-09 
  TPCLKQHLMN   30.000000E-09   64.000000E-09 
  TPCLKQHLTY   75.000000E-09  160.000000E-09 
  TPCLKQHLMX  120.000000E-09  360.000000E-09 
   TPPCQLHMN    0              70.000000E-09 
   TPPCQLHTY    0             175.000000E-09 
   TPPCQLHMX    0             225.000000E-09 
   TPPCQHLMN    0              70.000000E-09 
   TPPCQHLTY    0             175.000000E-09 
   TPPCQHLMX    0             225.000000E-09 
    TWCLKLMN    0               0            
    TWCLKLTY  165.000000E-09  125.000000E-09 
    TWCLKLMX  330.000000E-09  290.000000E-09 
    TWCLKHMN    0               0            
    TWCLKHTY  165.000000E-09  125.000000E-09 
    TWCLKHMX  330.000000E-09  290.000000E-09 
     TWPCLMN    0               0            
     TWPCLTY   30.000000E-09  125.000000E-09 
     TWPCLMX   60.000000E-09  200.000000E-09 
   TSUDCLKMN    0               0            
   TSUDCLKTY   70.000000E-09    0            
   TSUDCLKMX  150.000000E-09    0            
 TSUPCCLKHMN    0               0            
 TSUPCCLKHTY    0               0            
 TSUPCCLKHMX    0               0            
    THDCLKMN    0               0            
    THDCLKTY    0               0            
    THDCLKMX    0               0            
  TSUCECLKMN    0               0            
  TSUCECLKTY    0               0            
  TSUCECLKMX    0               0            
   THCECLKMN    0               0            
   THCECLKTY    0               0            
   THCECLKMX    0               0            


**** 03/28/22 14:13:23 ***** PSpice 16.6.0 (October 2012) ***** ID# 0 ********

 ** Profile: "SCHEMATIC1-s1"  [ C:\Users\destr\OneDrive\Desktop\Thesis\code\5 bit error simulation\full_thesis-pspicefiles\schematic1


 ****     Digital IO  MODEL PARAMETERS


******************************************************************************




               IO_STM          IO_PLD          IO_4000A        IO_AC           
        INLD                                                    5.000000E-12 
        DRVL    0                               1.649000E+03   18.7          
        DRVH    0                               1.649000E+03   24.5          
       AtoD1                                 AtoD_4000A      AtoD_AC         
       AtoD2                                 AtoD_4000A_NX   AtoD_AC_NX      
       AtoD3                                 AtoD_4000A      AtoD_AC         
       AtoD4                                 AtoD_4000A_NX   AtoD_AC_NX      
       DtoA1 DtoA_STM                        DtoA_4000A      DtoA_AC         
       DtoA2 DtoA_STM                        DtoA_4000A      DtoA_AC         
       DtoA3 DtoA_STM                        DtoA_4000A      DtoA_AC         
       DtoA4 DtoA_STM                        DtoA_4000A      DtoA_AC         
    DIGPOWER                                 CD4000_PWR                      
      TSWHL1                                    7.070000E-09  477.000000E-12 
      TSWHL2                                    6.940000E-09  477.000000E-12 
      TSWHL3                                    9.330000E-09  477.000000E-12 
      TSWHL4                                    9.180000E-09  477.000000E-12 
      TSWLH1                                    8.580000E-09  470.000000E-12 
      TSWLH2                                    8.370000E-09  470.000000E-12 
      TSWLH3                                   10.730000E-09  470.000000E-12 
      TSWLH4                                   10.590000E-09  470.000000E-12 
       TPWRT  100.000000E+03  100.000000E+03  100.000000E+03  100.000000E+03 


               IO_DFT          
       AtoD1 AtoD_STD        
       AtoD2 AtoD_STD_NX     
       AtoD3 AtoD_STD        
       AtoD4 AtoD_STD_NX     
       DtoA1 DtoA_STD        
       DtoA2 DtoA_STD        
       DtoA3 DtoA_STD        
       DtoA4 DtoA_STD        
       TPWRT  100.000000E+03 


**** 03/28/22 14:13:23 ***** PSpice 16.6.0 (October 2012) ***** ID# 0 ********

 ** Profile: "SCHEMATIC1-s1"  [ C:\Users\destr\OneDrive\Desktop\Thesis\code\5 bit error simulation\full_thesis-pspicefiles\schematic1


 ****     INITIAL TRANSIENT SOLUTION       TEMPERATURE =   27.000 DEG C


******************************************************************************



 NODE   VOLTAGE     NODE   VOLTAGE     NODE   VOLTAGE     NODE   VOLTAGE


(N92213)    5.0000 (X_M1.4)    3.5007 (X_M1.8) 3.501E-06 (X_M1.9)    3.5007     

(X_M2.4)     .0900 (X_M2.8) 90.00E-09 (X_M2.9)     .0900 (X_M3.4)    3.5007     

(X_M3.8) 3.501E-06 (X_M3.9)    3.5007 ($G_DGND)    0.0000                       

($G_DPWR)    5.0000                   (N100142)    3.5007                       

(N100216)     .1179                   (N100222)     .6000                       

(N184123)     .0900                   (N184201)     .6000                       

(N611617)    3.5007                   (N611695)     .1179                       

(N611701)     .6000                   (N999620)    3.5007                       

(N999780)    3.5007                   (N999940)    3.5007                       

(X_M1.10)     .1179                   (X_M2.10)     .6000                       

(X_M3.10)     .1179                   (N1000261)    3.5007                      

(N1001241)    3.5007                  (N1839430)     .0900                      

(N1839590)     .0900                  (N1839750)     .0900                      

(N1840071)     .0900                  (N1841051)     .0900                      

(N6103842)    3.5007                  (N6114370)    3.5007                      

(N6114530)    3.5007                  (N6114690)    3.5007                      

(N6115991)    3.5007                  ($G_CD4000_VDD)    5.0000                 

($G_CD4000_VSS)    0.0000             (X$0_AtoD1.NORM)   -1.2500                

(X$0_AtoD2.NORM)   -1.2500            (X$0_AtoD3.NORM)   -1.2500                

(X$0_AtoD4.NORM)   -1.2500            (X$0_AtoD5.NORM)   -1.2500                

(X$0_AtoD6.NORM)   -1.2500            (X$0_AtoD7.NORM)   -1.2500                

(X$0_AtoD8.NORM)   -1.2500            (X$N92213_AtoD1.NORM)    1.2500           

(X$N92213_AtoD2.NORM)    1.2500       (X$0_AtoD1.XNORM.THRESHOLD)    1.5000     

(X$0_AtoD2.XNORM.THRESHOLD)    1.5000 (X$0_AtoD3.XNORM.THRESHOLD)    1.5000     

(X$0_AtoD4.XNORM.THRESHOLD)    1.5000 (X$0_AtoD5.XNORM.THRESHOLD)    1.5000     

(X$0_AtoD6.XNORM.THRESHOLD)    1.5000 (X$0_AtoD7.XNORM.THRESHOLD)    1.5000     

(X$0_AtoD8.XNORM.THRESHOLD)    1.5000 (X$N92213_AtoD1.XNORM.THRESHOLD)    1.5000

(X$N92213_AtoD2.XNORM.THRESHOLD)    1.5000               



 DGTL NODE : STATE  DGTL NODE : STATE  DGTL NODE : STATE  DGTL NODE : STATE


( N610396) : 0     (N4638822) : 0     (N4652732) : 0     (N3056912) : 1         

(N1837970) : 0     ( N562039) : 0     ( N305217) : 0     (  N95789) : 1         

(N92213$AtoD2) : 1                    ( N610514) : 0     ( N305233) : 0         

( N297428) : 1     (N5604702) : 0     ( N477390) : 0     ( N478826) : 0         

( N312148) : 0     ( N304717) : 0     (N1153502) : 1     (N4602042) : 0         

(N4790561) : 1     ( N610408) : 0     (X_U2A.CLKS) : 0   (N5281702) : 0         

( N465475) : 0     (X_U2A.YB) : 1     ( N313712) : 1     (  N95912) : 0         

( N499492) : 0     ( N213153) : 1     (N4624151) : 1     (  N95896) : 0         

( N564008) : 0     (N4655252) : 0     ( N463832) : 0     ( N315508) : 0         

(N5616852) : 0     (N5587421) : 1     (N1209682) : 1     (  N98958) : 0         

(N1816992) : 0     ( N307202) : 0     ( N479440) : 0     ( N313188) : 0         

( N313168) : 0     ( N305737) : 1     ( N476610) : 0     ( N460768) : 0         

( N460788) : 0     ( N470672) : 1     ( N305753) : 1     ( N183463) : 0         

( N312668) : 0     (X_U22B.YB) : 1    (  N92223) : 0     (X_U1A.CLRB) : 1       

(N1206722) : 1     (N5586061) : 1     (  N98874) : 1     (X_U23B.Y) : 0         

(  N96117) : 0     ( N295922) : 0     ( N215907) : 0     (N1205902) : 1         

( N563756) : 0     (N4772882) : 0     (N1117982) : 0     (N1118692) : 0         

( N465879) : 0     ( N213145) : 1     (N1163452) : 0     ( N562365) : 0         

( N500106) : 0     (N4787502) : 0     (N5619911) : 1     ( N183625) : 0         

( N182431) : 0     (N1814132) : 0     (N4657011) : 1     ( N610496) : 0         

( N312162) : 1     ( N215958) : 0     ( N462593) : 0     (X_U1A.YB) : 1         

( N463984) : 0     (N4605822) : 0     (N1840071$DtoA) : 0                       

( N209926) : 1     (N1837670) : 0     ( N183595) : 0     ( N300973) : 0         

( N539914) : 0     ( N215900) : 0     ( N304203) : 0     (  N92239) : 1         

(N1845272) : 1     ( N560320) : 0     ( N464300) : 0     (N5634022) : 0         

( N477454) : 0     ( N465943) : 1     ( N295948) : 1     ( N295938) : 0         

( N304153) : 0     (  N98922) : 0     (N1819112) : 1     (N5601461) : 1         

(N4603841) : 1     (N1835072) : 1     (N1210202) : 0     ( N305207) : 0         

( N561595) : 0     ( N215921) : 0     (N5634521) : 1     (N5600161) : 1         

( N464110) : 0     ( N297488) : 1     ( N297418) : 1     ( N304707) : 0         

( N610478) : 0     ( 0$AtoD8) : 0     ( N560168) : 0     ( X_U2A.Y) : 0         

(N5622491) : 1     (X_U23B.CLRB) : 1  ( N213133) : 1     (X_U22B.PREB) : 1      

(N4998441) : 1     ( N304693) : 1     ( N304673) : 0     ( N181213) : 0         

(N4619872) : 0     ( N528080) : 0     ( N315538) : 0     (N5633762) : 0         

(N4637562) : 0     ( N479430) : 0     ( N527530) : 0     ( N305727) : 1         

( N460758) : 0     (  N91957) : 1     ( N477138) : 0     ( N465627) : 0         

( N183483) : 0     (  N95923) : 1     (N1812852) : 1     ( 0$AtoD5) : 0         

( N563478) : 0     (N1835572) : 0     ( N315589) : 0     (N1164232) : 1         

(  N95873) : 0     ( N558532) : 0     ( N313768) : 0     (N1848212) : 0         

(N5639661) : 1     ( N213125) : 1     ( N462677) : 0     ( N564092) : 0         

( N462697) : 0     ( N558888) : 0     ( N209881) : 0     ( N562291) : 0         

(N4621132) : 0     (N5603442) : 0     ( N527682) : 0     (N1115702) : 0         

(  N98895) : 0     ( 0$AtoD6) : 0     (N4622392) : 0     (N1163712) : 0         

( N215914) : 0     ( N304217) : 1     ( N183585) : 0     (N4771622) : 0         

( N300983) : 1     (  N96853) : 1     ( N300963) : 0     ( N300913) : 0         

(  N91949) : 1     ( N562165) : 0     (N4994162) : 0     ( N307198) : 1         

( N610523) : 0     ( N295998) : 1     ( N295928) : 1     (N4792542) : 0         

( N560636) : 0     (N4640581) : 1     ( N304143) : 0     ( N478952) : 0         

(X_U1A.PREB) : 1   ( N215935) : 0     (N1842852) : 0     ( 0$AtoD3) : 0         

( N462089) : 0     (N1817512) : 1     (  N95841) : 0     (N4994661) : 1         

( N305253) : 0     (N4604562) : 0     ( N297408) : 1     (N5278322) : 0         

( N312188) : 1     ( N304737) : 0     (N1820112) : 0     (  N98967) : 0         

(N5581782) : 0     (  N99012) : 0     ( N305183) : 1     (N5583581) : 1         

(N4657772) : 0     (X_U22B.Y) : 0     ( N304683) : 1     ( N304663) : 0         

(N4636302) : 0     (N1173772) : 1     ( N563882) : 0     (  N95832) : 0         

(N4793141) : 1     ( N209980) : 0     ( N479420) : 0     (N4602581) : 1         

( N305757) : 1     (N3136762) : 0     (  N98994) : 0     (  N98904) : 0         

( N460748) : 0     ( N558380) : 0     (  N92227) : 0     (N1152942) : 0         

(X_U22B.CLRB) : 1  (N4601281) : 1     ( N558254) : 0     (N5278961) : 1         

(X_U23B.PREB) : 1  ( N476986) : 0     (N5637802) : 0     ( N209965) : 0         

( N478576) : 0     ( N313708) : 0     ( N462341) : 0     ( N213149) : 1         

(N4622931) : 1     ( N460558) : 0     (N4658371) : 1     ( N562395) : 0         

( N500126) : 0     ( N102743) : 0     ( N564082) : 0     ( N462667) : 0         

( N558858) : 0     ( N462687) : 0     (N5603941) : 1     ( N215928) : 0         

(N4653992) : 0     ( N304207) : 0     ( N300903) : 1     (  N92219) : 0         

(N4600521) : 0     ( N479104) : 0     (N1174032) : 1     ( N313202) : 1         

(N1153222) : 0     (  N95905) : 0     ( N184679) : 0     (N3131562) : 1         

( N295988) : 1     ( X_U1A.Y) : 0     ( N560656) : 0     (  N95889) : 0         

( N312702) : 1     ( N304173) : 1     (X_U23B.YB) : 1    (N4790022) : 0         

(  N98886) : 0     (N1820632) : 1     ( N211205) : 0     (  N96860) : 0         

(N4603302) : 0     (N1173512) : 0     ( N460180) : 0     ( N305243) : 1         

( N297478) : 0     (  N92005) : 1     ( N460432) : 0     (N5275802) : 0         

(N1163972) : 1     (N4789301) : 1     (N5639062) : 0     ( N315523) : 0         

(N1847952) : 1     (N1819372) : 1     (N2156032) : 0     ( N313722) : 0         

(N4788001) : 1     (N4656512) : 0     ( N304697) : 0     ( N213113) : 1         

(N4997221) : 1     (N6103842$DtoA) : 1                   ( N477264) : 0         

( N313218) : 1     (X_U1A.CLKM) : 0   ( N465753) : 0     (N3051712) : 0         

( N610505) : 0     ( N315574) : 0     (N1842592) : 0     (N4624912) : 0         

(N5635282) : 0     ( N315488) : 0     ( N210847) : 0     ( N305783) : 0         

( N305713) : 1     (N1205122) : 1     (N4606421) : 1     (N4641941) : 1         

(X_U1A.CLKS) : 0   ( N564112) : 0     ( N313738) : 1     ( N307233) : 0         

(N1113922) : 0     ( N213129) : 1     (N5275120) : 0     ( N102727) : 1         

( N562385) : 0     ( N462657) : 0     ( N558848) : 0     ( N304721) : 0         

(N4788762) : 0     ( N211445) : 1     (  N95848) : 0     (N5635821) : 1         

(N4640082) : 0     (N5277062) : 0     ( N183519) : 0     ( N528012) : 0         

(  N95880) : 0     ( N558088) : 0     (N4999801) : 1     ( N300933) : 0         

(N4769102) : 0     (  N92299) : 0     ( N527944) : 0     (N5636542) : 0         

( N211138) : 1     ( N464340) : 0     ( N210805) : 1     ( N462467) : 0         

(N5277561) : 1     (X_U23B.CLKM) : 0  ( N560646) : 0     ( N211325) : 0         

(  0$AtoD) : 0     ( N304163) : 1     (N4621671) : 1     ( N610487) : 1         

( 0$AtoD7) : 0     ( N560572) : 0     (N4620371) : 1     ( N305257) : 1         

(N1000261$DtoA) : 1                   ( N563312) : 0     ( N297468) : 1         

(N1845532) : 0     (X_U2A.CLRB) : 1   ( N312138) : 1     ( N305187) : 1         

( N315553) : 0     (N5600922) : 0     ( N182403) : 1     (  N98913) : 0         

( N313752) : 1     (N92213$AtoD) : 1  (N1817772) : 0     ( N209938) : 0         

(N1207242) : 0     ( N559876) : 0     (N4636041) : 0     (N1820372) : 1         

( N305703) : 0     (N3126362) : 0     (N4654531) : 1     ( N183453) : 0         

(  N98940) : 0     ( N312658) : 1     (N5618651) : 1     (N4655791) : 1         

(N4653231) : 1     ( N464236) : 0     (N5617351) : 1     ( N564102) : 0         

( N211287) : 1     (N1209942) : 0     ( N209911) : 0     ( N528246) : 0         

( N499896) : 0     (N5586822) : 0     ( N312202) : 1     (  N92469) : 0         

( N527782) : 0     (N4605061) : 1     ( N562355) : 0     (  N95793) : 0         

( N560042) : 0     ( N558878) : 0     ( N313698) : 1     (N4623652) : 0         

(N4995961) : 1     ( N479230) : 0     (N1813872) : 0     (N5582281) : 1         

(  N99145) : 0     ( N528002) : 0     ( N500096) : 0     (N3046512) : 1         

(N1135652) : 1     ( N500022) : 0     ( N300923) : 0     (N1206982) : 1         

(  N92361) : 0     (N5618112) : 0     ( N464330) : 0     (N3008912) : 1         

( N184689) : 0     ( N209896) : 1     ( N312706) : 0     ( N304177) : 1         

( N465973) : 0     ( N315562) : 0     ( N295978) : 0     ( N462189) : 0         

(  N91941) : 1     ( N560676) : 0     (N5585562) : 0     (N3121162) : 1         

( N312722) : 1     (N1818852) : 0     ( N313192) : 1     (  N95825) : 0         

( N313172) : 1     ( N610433) : 0     (N4999202) : 0     ( N312692) : 1         

(N1844752) : 0     ( N297458) : 0     ( N312128) : 0     (N1135372) : 1         

(X_U22B.CLKM) : 0  ( N560446) : 0     (N5620632) : 0     ( N213117) : 1         

(N4636801) : 1     ( N313742) : 1     ( N563604) : 0     ( N211457) : 0         

(N4773481) : 1     ( N313238) : 0     (N5621131) : 1     (N3041312) : 1         

(  N95802) : 0     (N1205642) : 0     (X_U2A.PREB) : 1   (N5584302) : 0         

( N479460) : 0     (N5637081) : 1     ( N305767) : 0     ( N610541) : 0         

( N183437) : 0     (N2973962) : 0     ( N183443) : 0     (  N99003) : 0         

( N312648) : 1     (N1838230) : 1     (N5621892) : 0     (  N95857) : 0         

(N5605301) : 1     (N1123330) : 1     (  N98985) : 0     (X_U23B.CLKS) : 0      

(N1845012) : 1     ( N211449) : 1     (N1205382) : 0     ( N610532) : 0         

( N564072) : 0     ( N558868) : 0     (N4770901) : 1     ( N313688) : 0         

( N213141) : 1     ( N183651) : 0     (N4639361) : 1     ( N183539) : 0         

( N528032) : 0     ( N500086) : 0     (N1817252) : 1     (N5599662) : 0         

(N4995422) : 0     (N5602182) : 0     ( N300953) : 1     (N1118972) : 1         

(N5275121) : 1     ( N464320) : 0     (N4770362) : 0     ( N304187) : 0         

( N477474) : 0     ( N477494) : 0     (N1135112) : 0     (  N98976) : 0         

( N465963) : 0     ( N465983) : 0     ( N295968) : 0     ( N560666) : 0         

(N1848472) : 0     (N1123590) : 1     (N5583042) : 0     ( N460280) : 0         

(N1834252) : 1     (N1842332) : 1     (N4791282) : 0     ( N558658) : 0         

( N476860) : 0     (N4769641) : 1     ( N312682) : 0     (N4625511) : 1         

( N215951) : 0     ( N209953) : 1     ( N561887) : 0     ( N305203) : 1         

( N297448) : 1     ( N297438) : 0     (N1833432) : 1     ( N312158) : 1         

(N4768341) : 1     ( N209847) : 1     ( N210791) : 1     ( N479356) : 0         

(N4791781) : 1     (N1152682) : 1     ( 0$AtoD4) : 0     ( N181227) : 1         

( N313228) : 0     (  N95816) : 0     (N1818592) : 0     (N5619372) : 0         

(N4767842) : 0     (N5276381) : 1     (N4772121) : 1     (N5602721) : 1         

( N479450) : 0     ( N499770) : 0     ( N499618) : 0     ( N460778) : 0         

( N465375) : 1     ( N305723) : 0     ( N183473) : 0     ( N312678) : 1         

( N460684) : 0     (N4997942) : 0     (N1207502) : 0     (N1833052) : 1         

( N463732) : 0     ( N499242) : 0     ( N183689) : 0     ( N562375) : 0         

(N1123870) : 0     ( N500116) : 0     (N4641342) : 0     (  N98931) : 0         

( N183635) : 0     ( N213121) : 1     ( N527908) : 0     (N5282241) : 1         

(N5638301) : 1     (N4638101) : 1     ( N312192) : 1     ( N312172) : 1         

(  N95864) : 0     ( N183529) : 0     ( N528022) : 0     ( N558784) : 0         

( N215944) : 0     ( N561761) : 0     ( 0$AtoD2) : 0     ( N183575) : 0         

( N300943) : 1     ( N307224) : 0     (N4996682) : 0     (X_U22B.CLKS) : 0      

(N5584841) : 1     ( N464310) : 0     ( N313242) : 1     (N4600782) : 0         

( N477464) : 0     ( N477484) : 0     (X_U2A.CLKM) : 0   ( N465953) : 0         

( N295958) : 1     (N1847692) : 1     ( N209862) : 0     




    VOLTAGE SOURCE CURRENTS
    NAME         CURRENT

    V_V1        -1.000E-07
    V_V2        -4.821E-10
    V_V3        -6.222E-10
    V_V4        -4.821E-10
    X_M1.Vsense   3.501E-09
    X_M2.Vsense   9.000E-11
    X_M3.Vsense   3.501E-09
    X$DIGIFPWR.VDPWR  -2.762E-02
    X$DIGIFPWR.VDGND  -5.007E-06
    X$CD4000_PWR.VVDD  -5.400E-06
    X$CD4000_PWR.VVSS  -5.300E-06

    TOTAL POWER DISSIPATION   1.38E-01  WATTS



          JOB CONCLUDED

**** 03/28/22 14:13:23 ***** PSpice 16.6.0 (October 2012) ***** ID# 0 ********

 ** Profile: "SCHEMATIC1-s1"  [ C:\Users\destr\OneDrive\Desktop\Thesis\code\5 bit error simulation\full_thesis-pspicefiles\schematic1


 ****     JOB STATISTICS SUMMARY


******************************************************************************



  Total job time (using Solver 1)   =         .61
